data/topology/ieee39/zbus_full_complex.csv
from_bus,to_bus,real,imag,abs,angle_rad
1,1,0.0023587722400246034,-0.07110791381428068,0.07114702533134803,-1.5376367596608569
1,2,0.0006064982809521406,-0.09425811741681644,0.09426006863527712,-1.5643619747444346
1,3,0.00011168226649435626,-0.09816006182197648,0.09816012535557854,-1.569658570601279
1,4,0.00012054186480952734,-0.09881468171577955,0.09881475523894186,-1.5695764493139024
1,5,0.00026272437619617375,-0.09786369877122673,0.09786405142483756,-1.5681117384506809
1,6,0.0002615194184519116,-0.09790880107556545,0.09790915034081786,-1.568125281969062
1,7,0.0003529316922712348,-0.09710433781672557,0.09710497919058615,-1.567161781252046
1,8,0.00041097207450028675,-0.09665981433933249,0.09666068800789826,-1.5665446157718705
1,9,0.001294647838710039,-0.0881986955418156,0.08820819694509212,-1.5561186168975942
1,10,0.00012928509285392443,-0.09896243734010418,0.09896252178945968,-1.5694899218317733
1,11,0.0001703624680651916,-0.09864883778315438,0.09864898488751737,-1.5690693698176867
1,12,0.00013173046769495133,-0.09953881279673969,0.09953889996328324,-1.5694729195019104
1,13,9.105269867083073e-05,-0.09924501242384925,0.09924505419215573,-1.569878873404544
1,14,1.8136909911982791e-06,-0.09985506552216136,0.0998550655386326,-1.5707781635601972
1,15,-0.0003569284643267139,-0.1021790390021689,0.10217966240566369,-1.5742894797551326
1,16,-0.0004999558339773833,-0.10292800512982807,0.10292921934922969,-1.5756536239072363
1,17,-0.0005010926627335342,-0.1021823132212785,0.10218354187004929,-1.57570019548003
1,18,-0.0002724668595877488,-0.10073644528750876,0.1007368137641489,-1.5735010697941867
1,19,-0.0005265851611431227,-0.10323371404107444,0.10323505706225122,-1.5758971855501547
1,20,-0.0004967784539086335,-0.09739029626516447,0.09739156326627464,-1.575897185550155
1,21,-0.0005466864131633936,-0.10364734574283194,0.10364878747756039,-1.5760707632957918
1,22,-0.0005704322603763721,-0.10402258169467389,0.10402414573255953,-1.5762800067160967
1,23,-0.0005731353000861857,-0.10405979864875449,0.10406137697960531,-1.5763040205654275
1,24,-0.0005153040613683636,-0.10320336067722223,0.10320464714996357,-1.5757893791112645
1,25,-0.0010400920394484218,-0.09654912642184721,0.09655472854434607,-1.5815685817744047
1,26,-0.0012458492936540356,-0.1037555435692002,0.10376302309494795,-1.5828032941336532
1,27,-0.0009173787024235465,-0.10326579000910835,0.10326986477133066,-1.5796797582823268
1,28,-0.001584847577685348,-0.10697920592932621,0.10699094467810666,-1.5856097817717316
1,29,-0.0016065267359569304,-0.10718014741724502,0.10719218688195385,-1.5857842371262945
1,30,0.046492001587379886,-0.07934309761500824,0.0919610425710021,-1.0407631991461357
1,31,0.04596344205396731,-0.07912219558531866,0.09150387882319433,-1.0445265063707634
1,32,0.04634876901382631,-0.08003676842105509,0.0924883381209903,-1.0458911462334748
1,33,0.04781385130255257,-0.08380029109080389,0.09648136174042152,-1.0522984099518558
1,34,0.04783441563076754,-0.08383633287877053,0.09652285754833949,-1.0522984099518573
1,35,0.050260762945085635,-0.08816723360489565,0.10148697144639962,-1.0526812311177989
1,36,0.051533549594696915,-0.09040499679255809,0.10406137697960528,-1.0527052449671295
1,37,0.046218358129256,-0.08208199240413579,0.09419973516521567,-1.0579698061761047
1,38,0.0509256397496829,-0.0913404817684622,0.1045777432994672,-1.062185461527995
1,39,0.0018088133470931524,-0.08064314257338263,0.08066342572588608,-1.548370240160613
2,1,0.0006064982809524222,-0.09425811741681667,0.09426006863527735,-1.5643619747444317
2,2,0.0014489344495278611,-0.08542706780128166,0.08543935465676109,-1.5538368832758596
2,3,0.0006199352643464163,-0.09218797162255853,0.09219005603433396,-1.5640717410500833
2,4,0.0002841431198252111,-0.0965446777591529,0.09654509589270299,-1.5678532096183757
2,5,0.0002156774975860939,-0.09781492831696444,0.09781516609624427,-1.568591375549015
2,6,0.00020439380881888798,-0.09792948485200118,0.09792969815233482,-1.5687091769203247
2,7,0.00020349656814289813,-0.09817509643633747,0.09817530733915432,-1.5687235376244084
2,8,0.00020404845525799831,-0.09825494281811675,0.09825515469411,-1.5687196051962953
2,9,0.0002631773608918445,-0.09922578332624081,0.099226132339366,-1.5681440247928942
2,10,0.00017284429000305492,-0.09792484568241581,0.09792499822350541,-1.5690312577840493
2,11,0.00018082606360686346,-0.09795290169060844,0.09795306859754462,-1.5689502777746667
2,12,0.00017532990079501706,-0.09849721361898421,0.09849736966679831,-1.5690162793278528
2,13,0.00016766358971162423,-0.09786608917376752,0.09786623279378404,-1.5690831345431713
2,14,0.00016453941082512121,-0.09759679441240353,0.0975969331116233,-1.5691104184008116
2,15,-2.5615606882649377e-05,-0.09806947712649432,0.09806948047187417,-1.5710575253558625
2,16,-8.702031221383201e-05,-0.09802604282011416,0.09802608144522351,-1.5716840530240836
2,17,-3.50172306570455e-05,-0.096598859467113,0.09659886581401196,-1.5711588282707565
2,18,0.00021079210187479968,-0.09499975391417509,0.09499998777402047,-1.5685774604583644
2,19,-0.00011122520225132824,-0.09831728735429257,0.09831735026816046,-1.5719276146670018
2,20,-0.00010492943608618764,-0.092752157881408,0.09275221723411357,-1.5719276146670023
2,21,-0.0001288050391312544,-0.09871128817828471,0.09871137221493012,-1.572101192412639
2,22,-0.0001500009837062898,-0.09906873633927459,0.09906884989821885,-1.5723104358329438
2,23,-0.0001524345436471923,-0.0991041903654443,0.09910430759699762,-1.5723344496822749
2,24,-0.00010059632364148815,-0.0982883374836913,0.09828838896293055,-1.5718198082281116
2,25,-0.0004089846879648507,-0.0880222711512146,0.08802322129468414,-1.5754426707199973
2,26,-0.0006548654199553492,-0.0963997820592793,0.09640200635772474,-1.5775894474087515
2,27,-0.00039019424786746566,-0.09670993974566877,0.09671072689811587,-1.5748309909838136
2,28,-0.0009541954003650405,-0.09939635708596702,0.09940093707215814,-1.58039593504683
2,29,-0.0009733630004684341,-0.09958314612860819,0.0995879030224174,-1.5805703904013928
2,30,0.04289594921204917,-0.07147077430435284,0.08335546795781572,-1.0302381076775606
2,31,0.04592687164188225,-0.07916563061396914,0.09152308238535968,-1.045110401322026
2,32,0.04589916858621455,-0.079176618577235,0.09151868992850969,-1.045432482185751
2,33,0.04585263535182755,-0.07962699166459572,0.09188537408239279,-1.0483288390687031
2,34,0.04587235617784781,-0.07966123855219766,0.09192489319535528,-1.0483288390687047
2,35,0.048199476592346274,-0.08377662720242696,0.09665253648606725,-1.048711660234646
2,36,0.04942008299550932,-0.08590296374978737,0.09910430759699758,-1.0487356740839766
2,37,0.04259214092299608,-0.0745697709851086,0.08587631345822841,-1.051843895121697
2,38,0.04775474729638501,-0.08461289349891403,0.09715892977796821,-1.0569716148030934
2,39,0.00039189221779142353,-0.097935773805136,0.09793655788479157,-1.5667948254956074
3,1,0.00011168226649447958,-0.09816006182197659,0.09816012535557866,-1.5696585706012776
3,2,0.0006199352643462728,-0.09218797162255842,0.09219005603433385,-1.5640717410500848
3,3,0.0009308161767268865,-0.08679872399642186,0.08680371481775348,-1.560072891532561
3,4,0.0004800607139528172,-0.09286532970897325,0.09286657052053442,-1.5656269439982613
3,5,0.0003430888691396799,-0.09485291116000616,0.09485353164484783,-1.5671792804783495
3,6,0.0003286374334347642,-0.09500438418757816,0.09500495259418641,-1.5673371588266387
3,7,0.0002964532965424204,-0.09554060544604898,0.09554106537795481,-1.5676934330698118
3,8,0.00027804979822080114,-0.0957667921409447,0.09576719578570315,-1.5678929297956767
3,9,5.26809180361749e-05,-0.09945156327182875,0.09945157722474632,-1.5702666125161495
3,10,0.0003291400198584661,-0.0947958518850433,0.09479642328571126,-1.5673242476829787
3,11,0.0003267638890509062,-0.09488893572360305,0.09488949835148912,-1.5673526945641876
3,12,0.00033243096038316653,-0.0953503253081877,0.09535090480284202,-1.5673099242849116
3,13,0.00033417699768351474,-0.09467304380125428,0.09467363358855513,-1.5672665405285624
3,14,0.00035708695739544624,-0.0942422594679152,0.09424293597248015,-1.5670073127097606
3,15,0.00020017834203888085,-0.09493908303799106,0.09493929407502029,-1.5686878374458624
3,16,0.00015063579475646922,-0.09500097887887626,0.09500109830463728,-1.5692107045171961
3,17,0.0002087982282915241,-0.09371572199061746,0.09371595459110918,-1.5685683347529165
3,18,0.00048229204632858436,-0.0911571919190248,0.0911584677590616,-1.5655056027598613
3,19,0.0001278760335489799,-0.09528329306527293,0.0952833788739812,-1.5694542661601143
3,20,0.0001206377674990077,-0.08988989911818192,0.08988998006979348,-1.5694542661601147
3,21,0.00011178317258963265,-0.09566517640402522,0.09566524171239488,-1.5696278439057514
3,22,9.209818648085884e-05,-0.09601164383326145,0.09601168800537258,-1.5698370873260563
3,23,8.98247149366637e-05,-0.09604600951317513,0.09604605151636553,-1.5698611011753874
3,24,0.0001381074910376274,-0.09525521116580472,0.09525531128457419,-1.569346459721224
3,25,-0.00041140403910014324,-0.09362693878834139,0.09362784265462498,-1.5751903761643378
3,26,-0.0005015879890206438,-0.0977978771311939,0.09779916340071028,-1.5759251046962404
3,27,-0.00017345923954104913,-0.09613840630412304,0.09613856278728336,-1.5726005906472402
3,28,-0.0008001961398781727,-0.10083838280291167,0.10084155770399834,-1.5787315923343188
3,29,-0.0008193261231840946,-0.10102791108583871,0.10103123335713696,-1.5789060476888814
3,30,0.045493527316004805,-0.07758747094275259,0.08994151808227696,-1.0404729654517857
3,31,0.044660561177362695,-0.07674008547721678,0.08878967532166955,-1.0437383832283402
3,32,0.04456352295431883,-0.07657107093075255,0.08859478811748712,-1.0437254720846805
3,33,0.04462840226749997,-0.07705963956447602,0.08904988679811308,-1.0458554905618156
3,34,0.04464759656134866,-0.07709278225591322,0.08908818639226304,-1.0458554905618171
3,35,0.04691276223001519,-0.08107558392728552,0.09366993951743674,-1.0462383117277585
3,36,0.04810079524161034,-0.0831333718130632,0.09604605151636549,-1.046262325577089
3,37,0.04532408101960054,-0.07930635072080418,0.0913442367362195,-1.0515916005660375
3,38,0.04858965688415391,-0.08575843956410135,0.09856705693379218,-1.0553072720905823
3,39,3.40745795746342e-05,-0.10002313292908208,0.10002313873312411,-1.570455659818582
4,1,0.00012054186480950395,-0.09881468171577934,0.09881475523894166,-1.5695764493139026
4,2,0.00028414311982493377,-0.09654467775915249,0.09654509589270259,-1.5678532096183786
4,3,0.0004800607139526822,-0.09286532970897292,0.09286657052053407,-1.5656269439982629
4,4,0.001031183593649819,-0.08389016698490924,0.08389650443468886,-1.5585048783464999
4,5,0.0008223004743911579,-0.08729757362173064,0.08730144637010126,-1.5613770941469018
4,6,0.0007993314297279191,-0.08760427293695498,0.08760791954810394,-1.561672237048776
4,7,0.0007466439593725159,-0.0884267786570681,0.0884299307975992,-1.562352886612418
4,8,0.0007144038379893116,-0.08879921066611071,0.0888020843661231,-1.5627513405831674
4,9,0.0002747675792326659,-0.0956130458485015,0.09561344065376085,-1.5679225890071655
4,10,0.0007859689636480903,-0.08775807450328109,0.08776159403597483,-1.5618404790905627
4,11,0.0007885629179078425,-0.08773217780587318,0.08773572165336561,-1.561808271296993
4,12,0.0007918565894013337,-0.08827070159908942,0.08827425331122131,-1.561825792579334
4,13,0.0007856874544300554,-0.08775643969271209,0.08775995677025293,-1.56184351985106
4,14,0.0007932330917219273,-0.08764669323867566,0.0876502826830143,-1.5617462256914205
4,15,0.00032394463639096434,-0.09308044564640379,0.0930810093513203,-1.5673160756395461
4,16,0.00011176149803222255,-0.09520153249934435,0.09520159810032687,-1.5696223809165395
4,17,4.995368284730733e-05,-0.0958627326569971,0.0958627456723274,-1.5702752308805483
4,18,0.00020910540401971448,-0.09480257807461843,0.09480280868552426,-1.5685906371484495
4,19,8.883723691560414e-05,-0.09548443309636082,0.09548447442274617,-1.5698659425594579
4,20,8.380871407129308e-05,-0.09007965386449125,0.09007969285164724,-1.5698659425594583
4,21,7.255286919348626e-05,-0.09586711572834834,0.09586714318259078,-1.570039520305095
4,22,5.268340611224245e-05,-0.0962143062266444,0.09621432065038854,-1.5702487637254
4,23,5.039095920259711e-05,-0.09624874349448938,0.09624875668556337,-1.5702727775747307
4,24,9.910187207774686e-05,-0.095456296153374,0.09545634759669833,-1.5697581361205675
4,25,-0.0005955587718996028,-0.09775020835001393,0.09775202260169309,-1.5768889112810995
4,26,-0.0006863331140973677,-0.10106483092161102,0.10106716134510423,-1.5775872406803375
4,27,-0.0003416433555177544,-0.09889656818699673,0.09889715829763596,-1.5742508652358274
4,28,-0.0010001415528314924,-0.10420641904726992,0.10421121846414098,-1.580393728318416
4,29,-0.0010202362930375225,-0.10440224736348692,0.10440723220467223,-1.5805681836729788
4,30,0.047335038087468514,-0.08143226534604499,0.09419033745629525,-1.0442544340200797
4,31,0.04158353064735063,-0.07053071040056512,0.0818765603253308,-1.0380734614504774
4,32,0.04164458536518306,-0.07066143684600448,0.08202018134203252,-1.038241703492264
4,33,0.04469079612350583,-0.07724067860649171,0.089237826563314,-1.0462671669611592
4,34,0.044710017252417966,-0.07727389916127139,0.08927620698874841,-1.0462671669611605
4,35,0.046978320274510474,-0.08126604067972033,0.09386762990281816,-1.046649988127102
4,36,0.04816801159803513,-0.08332866146895872,0.09624875668556333,-1.0466740019764325
4,37,0.04717983916984912,-0.08287994443149614,0.09536782692848107,-1.0532901356827995
4,38,0.050065925008887964,-0.0887074308053516,0.10186071434602172,-1.0569694080746794
4,39,0.00015194811262218055,-0.09840950729324746,0.09840962460007992,-1.5692522890687588
5,1,0.00026272437619621035,-0.0978636987712263,0.09786405142483715,-1.5681117384506806
5,2,0.00021567749758589624,-0.09781492831696381,0.09781516609624366,-1.568591375549017
5,3,0.0003430888691396295,-0.09485291116000563,0.09485353164484729,-1.56717928047835
5,4,0.0008223004743912294,-0.08729757362173045,0.08730144637010107,-1.5613770941469012
5,5,0.0012347741638968142,-0.08141917675528505,0.08142853928902433,-1.5556318463679149
5,6,0.0011741886770801388,-0.08231363854177583,0.08232201290684957,-1.556532481041237
5,7,0.0011221237036236479,-0.08311053406164148,0.08311810893913253,-1.5572955649630216
5,8,0.0010901045942026072,-0.08347246936197551,0.08347958714208069,-1.5577376184962075
5,9,0.0005381074855003728,-0.09204630524350862,0.09204787813223678,-1.5649503414071728
5,10,0.0009570835985145703,-0.08525005629825295,0.08525542861231679,-1.5595700187705466
5,11,0.001027185147436059,-0.08432436818993048,0.08433062421183703,-1.5586155732645817
5,12,0.0009643407840144123,-0.08574261101627866,0.08574803377942018,-1.559549875179124
5,13,0.0008891677293699657,-0.08614899407112142,0.08615358262264586,-1.5604754151349336
5,14,0.0007191052363027002,-0.08836565754216569,0.08836858347399364,-1.5626586703474046
5,15,0.00022127898545162107,-0.09426807363764537,0.09426833334551923,-1.568448993593963
5,16,-5.34587259164057e-06,-0.09658947190048806,0.09658947204842526,-1.5708516731228244
5,17,-7.438741690646289e-05,-0.09742075638767723,0.09742078478761577,-1.57155989510629
5,18,7.943427724021969e-05,-0.09652597778215208,0.09652601046663495,-1.5699733953816755
5,19,-2.8957149301715984e-05,-0.0968764678885464,0.0968764722163078,-1.5710952347657428
5,20,-2.731806537900638e-05,-0.09139289423447763,0.0913928983172714,-1.5710952347657432
5,21,-4.595618902926023e-05,-0.09726470876520579,0.09726471962202744,-1.5712688125113798
5,22,-6.654831958636078e-05,-0.09761693565034063,0.09761695833430574,-1.5714780559316848
5,23,-6.891713523544377e-05,-0.0976518720681693,0.09765189638706273,-1.5715020697810158
5,24,-1.8507788699499987e-05,-0.09684793358155525,0.09684793534998865,-1.5709874283268526
5,25,-0.0007070295701732993,-0.09907226836715735,0.09907479119446655,-1.5779327089456527
5,26,-0.0008164728936406937,-0.10256839716307811,0.10257164678696049,-1.5787564360618216
5,27,-0.0004699660475552175,-0.1004285979476019,0.10042969756903046,-1.575475896426032
5,28,-0.001138680273794557,-0.10575637641528583,0.10576250633025654,-1.5815629236999
5,29,-0.0011593065001309342,-0.1059550958509377,0.10596143793070496,-1.5817373790544627
5,30,0.047896825707722905,-0.08253890150541619,0.09542943033779873,-1.0449925999507181
5,31,0.03941466962063116,-0.06607346515567077,0.0769364606606071,-1.0329337054429386
5,32,0.040611109214005126,-0.06855156320475078,0.0796779706657166,-1.0359712431722479
5,33,0.045245940483510876,-0.07842239326639187,0.09053875908066132,-1.047496459167444
5,34,0.04526540037526086,-0.07845612206653266,0.09057769902603698,-1.0474964591674454
5,35,0.04756179052666275,-0.08250928807080889,0.09523605691151787,-1.047879280333387
5,36,0.04876625204421465,-0.08460346050576038,0.09765189638706268,-1.0479032941827175
5,37,0.047730564502031135,-0.08405133268448223,0.09665833287265028,-1.0543339333473525
5,38,0.050705911263983494,-0.09008727601696846,0.10337701261532192,-1.0581386034561635
5,39,0.0003584358006635775,-0.0961216903291978,0.09612235862672844,-1.567067364704596
6,1,0.00026151941845192815,-0.09790880107556493,0.09790915034081735,-1.5681252819690619
6,2,0.00020439380881867434,-0.0979294848520005,0.09792969815233414,-1.568709176920327
6,3,0.0003286374334346987,-0.09500438418757756,0.0950049525941858,-1.5673371588266394
6,4,0.0007993314297279715,-0.08760427293695472,0.08760791954810368,-1.5616722370487752
6,5,0.0011741886770801184,-0.08231363854177577,0.08232201290684951,-1.5565324810412373
...
